<?xml version="1.0" encoding="UTF-8"?>

<!-- generated on 2025-09-17 23:12:50 by Eclipse SUMO netedit Version 1.24.0
-->

<routes xmlns:xsi="http://www.w3.org/2001/XMLSchema-instance" xsi:noNamespaceSchemaLocation="http://sumo.dlr.de/xsd/routes_file.xsd">
    <!-- VTypes -->
    <vType id="emergency" vClass="emergency" guiShape="emergency"/>
    <!-- Vehicles, persons and containers (sorted by depart) -->
    <trip id="emergency" type="emergency" depart="0.00" from="Node1-2-EB" to="-E3" via="Node1-2-SB"/>
    <flow id="f_0" begin="0.00" from="Node2-3-WB" to="E4" via="Node1-2-SB" end="3600.00" vehsPerHour="1800"/>
    <flow id="f_1" begin="0.00" from="-E4" to="-E3" end="3600.00" vehsPerHour="1800"/>
    <flow id="f_2" begin="0.00" from="Node1-2-EB" to="Node2-3-EB" end="3600.00" vehsPerHour="1800"/>
    <flow id="f_3" begin="0.00" color="red" from="Node1-2-EB" to="-E3" via="Node1-2-SB" end="3600.00" vehsPerHour="1800"/>
    <flow id="f_4" begin="0.00" color="red" from="Node2-3-WB" to="Node1-2-WB" end="3600.00" vehsPerHour="1800"/>
</routes>
