<?xml version="1.0" encoding="UTF-8"?>

<!-- generated on 2025-09-14 16:09:37 by Eclipse SUMO netedit Version 1.24.0
<neteditConfiguration xmlns:xsi="http://www.w3.org/2001/XMLSchema-instance" xsi:noNamespaceSchemaLocation="http://sumo.dlr.de/xsd/neteditConfiguration.xsd">

    <input>
        <sumocfg-file value="E:\Programming\Projects\SIH 2025\Traffic Simulation\TLS\Traci\Traci2\Traci2.sumocfg"/>
        <route-files value="E:\Programming\Projects\SIH 2025\Traffic Simulation\TLS\Traci\Traci2\Traci2.rou.xml"/>
        <sumo-net-file value="E:\Programming\Projects\SIH 2025\Traffic Simulation\TLS\Traci\Traci2\Traci2.net.xml"/>
    </input>

    <output>
        <output-file value="E:\Programming\Projects\SIH 2025\Traffic Simulation\TLS\Traci\Traci2\Traci2.net.xml"/>
    </output>

    <processing>
        <geometry.min-radius.fix.railways value="false"/>
        <geometry.avoid-overlap value="false"/>
        <geometry.max-grade.fix value="false"/>
        <offset.disable-normalization value="true"/>
        <lefthand value="1"/>
    </processing>

    <junctions>
        <no-turnarounds value="true"/>
        <junctions.corner-detail value="5"/>
        <junctions.limit-turn-speed value="5.50"/>
        <rectangular-lane-cut value="0"/>
    </junctions>

    <pedestrian>
        <walkingareas value="0"/>
    </pedestrian>

    <netedit>
        <new-network value="false"/>
        <ignore.additionalelements value="0"/>
        <ignore.routeelements value="0"/>
    </netedit>

</neteditConfiguration>
-->

<net version="1.20" junctionCornerDetail="5" lefthand="true" limitTurnSpeed="5.50" avoidOverlap="0" xmlns:xsi="http://www.w3.org/2001/XMLSchema-instance" xsi:noNamespaceSchemaLocation="http://sumo.dlr.de/xsd/net_file.xsd">

    <location netOffset="0.00,0.00" convBoundary="-72.39,-36.18,66.25,16.48" origBoundary="-10000000000.00,-10000000000.00,10000000000.00,10000000000.00" projParameter="!"/>

    <edge id=":J3_0" function="internal">
        <lane id=":J3_0_0" index="0" speed="6.07" length="7.73" shape="67.84,-32.72 67.55,-34.81 66.65,-36.31 65.16,-37.21 63.06,-37.52"/>
    </edge>
    <edge id=":J3_1" function="internal">
        <lane id=":J3_1_0" index="0" speed="3.90" length="2.58" shape="63.05,-34.32 63.75,-34.22 64.25,-33.91 64.55,-33.42 64.65,-32.72"/>
    </edge>
    <edge id=":Node1_0" function="internal">
        <lane id=":Node1_0_0" index="0" speed="3.91" length="2.58" shape="-69.19,14.44 -69.89,14.34 -70.39,14.04 -70.69,13.54 -70.79,12.84"/>
    </edge>
    <edge id=":Node1_1" function="internal">
        <lane id=":Node1_1_0" index="0" speed="6.01" length="7.55" shape="-73.88,12.84 -73.59,14.88 -72.71,16.34 -71.24,17.22 -69.19,17.51"/>
    </edge>
    <edge id=":Node2_0" function="internal">
        <lane id=":Node2_0_0" index="0" speed="6.53" length="9.05" shape="-7.07,9.27 -7.45,11.72 -8.53,13.46 -10.29,14.50 -12.75,14.83"/>
    </edge>
    <edge id=":Node2_1" function="internal">
        <lane id=":Node2_1_0" index="0" speed="7.98" length="14.25" shape="-7.07,9.27 -6.53,12.87 -4.79,15.45 -1.85,16.99 2.29,17.51"/>
    </edge>
    <edge id=":Node2_2" function="internal">
        <lane id=":Node2_2_0" index="0" speed="6.52" length="9.05" shape="2.29,14.88 -0.15,14.53 -1.90,13.47 -2.95,11.72 -3.31,9.25"/>
    </edge>
    <edge id=":Node2_3" function="internal">
        <lane id=":Node2_3_0" index="0" speed="13.89" length="15.04" shape="2.29,14.88 -12.75,14.83"/>
    </edge>
    <edge id=":Node2_4" function="internal">
        <lane id=":Node2_4_0" index="0" speed="13.89" length="15.04" shape="-12.75,17.51 2.29,17.51"/>
    </edge>
    <edge id=":Node2_5" function="internal">
        <lane id=":Node2_5_0" index="0" speed="8.02" length="1.47" shape="-12.75,17.51 -11.29,17.33"/>
    </edge>
    <edge id=":Node2_6" function="internal">
        <lane id=":Node2_6_0" index="0" speed="8.02" length="12.82" shape="-11.29,17.33 -8.61,16.99 -5.66,15.45 -3.89,12.87 -3.31,9.25"/>
    </edge>
    <edge id=":Node3_0" function="internal">
        <lane id=":Node3_0_0" index="0" speed="3.90" length="2.58" shape="64.65,13.28 64.55,13.98 64.25,14.48 63.75,14.78 63.05,14.88"/>
    </edge>
    <edge id=":Node3_1" function="internal">
        <lane id=":Node3_1_0" index="0" speed="5.89" length="7.19" shape="63.05,17.51 65.10,17.25 66.57,16.45 67.45,15.14 67.75,13.29"/>
    </edge>
    <edge id=":Node4_0" function="internal">
        <lane id=":Node4_0_0" index="0" speed="6.07" length="7.75" shape="-69.14,-37.77 -71.25,-37.48 -72.75,-36.58 -73.65,-35.07 -73.95,-32.97"/>
    </edge>
    <edge id=":Node4_1" function="internal">
        <lane id=":Node4_1_0" index="0" speed="3.91" length="2.59" shape="-70.75,-32.97 -70.65,-33.67 -70.35,-34.17 -69.85,-34.47 -69.15,-34.57"/>
    </edge>
    <edge id=":Node5_0" function="internal">
        <lane id=":Node5_0_0" index="0" speed="13.89" length="14.24" shape="2.16,-37.64 -12.08,-37.66"/>
    </edge>
    <edge id=":Node5_1" function="internal">
        <lane id=":Node5_1_0" index="0" speed="8.01" length="3.97" shape="2.16,-37.64 -1.60,-37.09 -1.75,-37.00"/>
    </edge>
    <edge id=":Node5_6" function="internal">
        <lane id=":Node5_6_0" index="0" speed="8.01" length="10.11" shape="-1.75,-37.00 -4.30,-35.44 -5.95,-32.69 -6.54,-28.83"/>
    </edge>
    <edge id=":Node5_2" function="internal">
        <lane id=":Node5_2_0" index="0" speed="6.51" length="9.07" shape="-3.44,-28.79 -3.09,-31.27 -2.05,-33.03 -0.30,-34.09 2.15,-34.44"/>
    </edge>
    <edge id=":Node5_3" function="internal">
        <lane id=":Node5_3_0" index="0" speed="7.99" length="14.10" shape="-3.44,-28.79 -3.99,-32.67 -5.61,-35.44 -8.31,-37.10 -12.08,-37.66"/>
    </edge>
    <edge id=":Node5_4" function="internal">
        <lane id=":Node5_4_0" index="0" speed="6.48" length="9.03" shape="-12.08,-34.46 -9.63,-34.11 -7.89,-33.05 -6.86,-31.29 -6.54,-28.83"/>
    </edge>
    <edge id=":Node5_5" function="internal">
        <lane id=":Node5_5_0" index="0" speed="13.89" length="14.24" shape="-12.08,-34.46 2.15,-34.44"/>
    </edge>

    <edge id="-E2" from="J3" to="Node3" priority="-1">
        <lane id="-E2_0" index="0" speed="13.89" length="46.00" shape="64.65,-32.72 64.65,13.28"/>
    </edge>
    <edge id="-E3" from="Node5" to="J3" priority="-1">
        <lane id="-E3_0" index="0" speed="13.89" length="60.90" shape="2.15,-34.44 63.05,-34.32"/>
    </edge>
    <edge id="-E4" from="Node4" to="Node5" priority="-1">
        <lane id="-E4_0" index="0" speed="13.89" length="57.07" shape="-69.15,-34.57 -12.08,-34.46"/>
    </edge>
    <edge id="-E5" from="Node1" to="Node4" priority="-1">
        <lane id="-E5_0" index="0" speed="13.89" length="45.81" shape="-70.79,12.84 -70.75,-32.97"/>
    </edge>
    <edge id="E2" from="Node3" to="J3" priority="-1" shape="66.14,15.91 66.25,-35.91">
        <lane id="E2_0" index="0" speed="13.89" length="46.01" shape="67.75,13.29 67.84,-32.72"/>
    </edge>
    <edge id="E3" from="J3" to="Node5" priority="-1" shape="66.25,-35.91 -5.06,-36.05">
        <lane id="E3_0" index="0" speed="13.89" length="60.90" shape="63.06,-37.52 2.16,-37.64"/>
    </edge>
    <edge id="E4" from="Node5" to="Node4" priority="-1" shape="-5.06,-36.05 -72.35,-36.18">
        <lane id="E4_0" index="0" speed="13.89" length="57.07" shape="-12.08,-37.66 -69.14,-37.77"/>
    </edge>
    <edge id="E5" from="Node4" to="Node1" priority="-1" shape="-72.35,-36.18 -72.28,15.91">
        <lane id="E5_0" index="0" speed="13.89" length="45.81" shape="-73.95,-32.97 -73.88,12.84"/>
    </edge>
    <edge id="Node1-2-EB" from="Node1" to="Node2" priority="-1" shape="-72.28,15.91 -4.89,15.91">
        <lane id="Node1-2-EB_0" index="0" speed="13.89" length="56.44" shape="-69.19,17.51 -12.75,17.51"/>
    </edge>
    <edge id="Node1-2-NB" from="Node5" to="Node2" priority="-1">
        <lane id="Node1-2-NB_0" index="0" speed="13.89" length="38.10" shape="-6.54,-28.83 -7.07,9.27"/>
    </edge>
    <edge id="Node1-2-SB" from="Node2" to="Node5" priority="-1" shape="-4.89,15.91 -5.06,-36.05">
        <lane id="Node1-2-SB_0" index="0" speed="13.89" length="38.05" shape="-3.31,9.25 -3.44,-28.79"/>
    </edge>
    <edge id="Node1-2-WB" from="Node2" to="Node1" priority="-1">
        <lane id="Node1-2-WB_0" index="0" speed="13.89" length="56.44" shape="-12.75,14.83 -69.19,14.44"/>
    </edge>
    <edge id="Node2-3-EB" from="Node2" to="Node3" priority="-1" shape="-4.89,15.91 66.14,15.91">
        <lane id="Node2-3-EB_0" index="0" speed="13.89" length="60.76" shape="2.29,17.51 63.05,17.51"/>
    </edge>
    <edge id="Node2-3-WB" from="Node3" to="Node2" priority="-1">
        <lane id="Node2-3-WB_0" index="0" speed="13.89" length="60.76" shape="63.05,14.88 2.29,14.88"/>
    </edge>

    <tlLogic id="Node2" type="static" programID="0" offset="0">
    <!-- Phase 1: Allow NB traffic (links 0 and 1), others red -->
    <phase duration="30" state="GGrrrr"/>
    <phase duration="3"  state="yyrrrr"/>

    <!-- Phase 2: Allow WB traffic (links 2 and 3), others red -->
    <phase duration="30" state="rrGGrr"/>
    <phase duration="3"  state="rryyrr"/>

    <!-- Phase 3: Allow EB traffic (links 4 and 5), others red -->
    <phase duration="30" state="rrrrGG"/>
    <phase duration="3"  state="rrrryy"/>
</tlLogic>

<tlLogic id="Node5" type="static" programID="0" offset="0">
    <!-- Phase 1: Allow traffic from E3 (links 0 and 1) -->
    <phase duration="30" state="GGrrrr"/>
    <phase duration="3"  state="yyrrrr"/>

    <!-- Phase 2: Allow traffic from SB (links 2 and 3) -->
    <phase duration="30" state="rrGGrr"/>
    <phase duration="3"  state="rryyrr"/>

    <!-- Phase 3: Allow traffic from -E4 (links 4 and 5) -->
    <phase duration="30" state="rrrrGG"/>
    <phase duration="3"  state="rrrryy"/>
</tlLogic>


    <junction id="J3" type="priority" x="66.25" y="-35.91" incLanes="E2_0 -E3_0" intLanes=":J3_0_0 :J3_1_0" shape="69.44,-32.72 63.05,-32.72 63.06,-39.12 66.61,-38.40 67.85,-37.51 68.74,-36.27 69.27,-34.67">
        <request index="0" response="00" foes="00" cont="0"/>
        <request index="1" response="00" foes="00" cont="0"/>
    </junction>
    <junction id="Node1" type="priority" x="-72.39" y="16.02" incLanes="Node1-2-WB_0 E5_0" intLanes=":Node1_0_0 :Node1_1_0" shape="-75.48,12.84 -69.19,12.84 -69.19,19.11 -72.68,18.41 -73.91,17.54 -74.78,16.32 -75.31,14.75">
        <request index="0" response="00" foes="00" cont="0"/>
        <request index="1" response="00" foes="00" cont="0"/>
    </junction>
    <junction id="Node2" type="traffic_light" x="-5.57" y="16.48" incLanes="Node1-2-NB_0 Node2-3-WB_0 Node1-2-EB_0" intLanes=":Node2_0_0 :Node2_1_0 :Node2_2_0 :Node2_3_0 :Node2_4_0 :Node2_6_0" shape="-8.67,9.27 -1.71,9.25 -1.26,11.49 -0.71,12.27 0.07,12.83 1.07,13.17 2.29,13.28 2.29,19.11 -12.78,19.11 -12.74,13.23 -10.50,12.80 -9.71,12.25 -9.15,11.48 -8.80,10.49">
        <request index="0" response="001000" foes="001000" cont="0"/>
        <request index="1" response="111000" foes="111000" cont="0"/>
        <request index="2" response="000000" foes="100000" cont="0"/>
        <request index="3" response="000000" foes="100011" cont="0"/>
        <request index="4" response="000000" foes="000010" cont="0"/>
        <request index="5" response="001100" foes="001110" cont="1"/>
    </junction>
    <junction id="Node3" type="priority" x="66.25" y="16.48" incLanes="-E2_0 Node2-3-EB_0" intLanes=":Node3_0_0 :Node3_1_0" shape="63.05,13.28 69.35,13.29 68.64,16.52 67.77,17.66 66.54,18.46 64.97,18.95 63.05,19.11">
        <request index="0" response="00" foes="00" cont="0"/>
        <request index="1" response="00" foes="00" cont="0"/>
    </junction>
    <junction id="Node4" type="priority" x="-72.35" y="-36.18" incLanes="E4_0 -E5_0" intLanes=":Node4_0_0 :Node4_1_0" shape="-69.14,-39.37 -69.15,-32.97 -75.55,-32.97 -74.84,-36.53 -73.95,-37.78 -72.70,-38.67 -71.10,-39.20">
        <request index="0" response="00" foes="00" cont="0"/>
        <request index="1" response="00" foes="00" cont="0"/>
    </junction>
    <junction id="Node5" type="traffic_light" x="-4.84" y="-36.05" incLanes="E3_0 Node1-2-SB_0 -E4_0" intLanes=":Node5_0_0 :Node5_6_0 :Node5_2_0 :Node5_3_0 :Node5_4_0 :Node5_5_0" shape="2.16,-39.24 2.15,-32.84 -0.07,-32.39 -0.85,-31.82 -1.40,-31.03 -1.73,-30.01 -1.84,-28.77 -8.14,-28.86 -8.55,-31.08 -9.10,-31.86 -9.87,-32.42 -10.86,-32.75 -12.08,-32.86 -12.07,-39.26">
        <request index="0" response="000000" foes="001000" cont="0"/>
        <request index="1" response="110000" foes="111000" cont="1"/>
        <request index="2" response="100000" foes="100000" cont="0"/>
        <request index="3" response="100011" foes="100011" cont="0"/>
        <request index="4" response="000000" foes="000010" cont="0"/>
        <request index="5" response="000000" foes="001110" cont="0"/>
    </junction>

    <junction id=":Node2_6_0" type="internal" x="-11.29" y="17.33" incLanes=":Node2_5_0 Node2-3-WB_0" intLanes=":Node2_1_0 :Node2_2_0 :Node2_3_0"/>
    <junction id=":Node5_6_0" type="internal" x="-1.75" y="-37.00" incLanes=":Node5_1_0 -E4_0" intLanes=":Node5_3_0 :Node5_4_0 :Node5_5_0"/>

    <connection from="-E2" to="Node2-3-WB" fromLane="0" toLane="0" via=":Node3_0_0" dir="l" state="M"/>
    <connection from="-E3" to="-E2" fromLane="0" toLane="0" via=":J3_1_0" dir="l" state="M"/>
    <connection from="-E4" to="Node1-2-NB" fromLane="0" toLane="0" via=":Node5_4_0" tl="Node5" linkIndex="4" dir="l" state="O"/>
    <connection from="-E4" to="-E3" fromLane="0" toLane="0" via=":Node5_5_0" tl="Node5" linkIndex="5" dir="s" state="O"/>
    <connection from="-E5" to="-E4" fromLane="0" toLane="0" via=":Node4_1_0" dir="l" state="M"/>
    <connection from="E2" to="E3" fromLane="0" toLane="0" via=":J3_0_0" dir="r" state="M"/>
    <connection from="E3" to="E4" fromLane="0" toLane="0" via=":Node5_0_0" tl="Node5" linkIndex="0" dir="s" state="O"/>
    <connection from="E3" to="Node1-2-NB" fromLane="0" toLane="0" via=":Node5_1_0" tl="Node5" linkIndex="1" dir="r" state="o"/>
    <connection from="E4" to="E5" fromLane="0" toLane="0" via=":Node4_0_0" dir="r" state="M"/>
    <connection from="E5" to="Node1-2-EB" fromLane="0" toLane="0" via=":Node1_1_0" dir="r" state="M"/>
    <connection from="Node1-2-EB" to="Node2-3-EB" fromLane="0" toLane="0" via=":Node2_4_0" tl="Node2" linkIndex="4" dir="s" state="O"/>
    <connection from="Node1-2-EB" to="Node1-2-SB" fromLane="0" toLane="0" via=":Node2_5_0" tl="Node2" linkIndex="5" dir="r" state="o"/>
    <connection from="Node1-2-NB" to="Node1-2-WB" fromLane="0" toLane="0" via=":Node2_0_0" tl="Node2" linkIndex="0" dir="l" state="o"/>
    <connection from="Node1-2-NB" to="Node2-3-EB" fromLane="0" toLane="0" via=":Node2_1_0" tl="Node2" linkIndex="1" dir="r" state="o"/>
    <connection from="Node1-2-SB" to="-E3" fromLane="0" toLane="0" via=":Node5_2_0" tl="Node5" linkIndex="2" dir="l" state="o"/>
    <connection from="Node1-2-SB" to="E4" fromLane="0" toLane="0" via=":Node5_3_0" tl="Node5" linkIndex="3" dir="r" state="o"/>
    <connection from="Node1-2-WB" to="-E5" fromLane="0" toLane="0" via=":Node1_0_0" dir="l" state="M"/>
    <connection from="Node2-3-EB" to="E2" fromLane="0" toLane="0" via=":Node3_1_0" dir="r" state="M"/>
    <connection from="Node2-3-WB" to="Node1-2-SB" fromLane="0" toLane="0" via=":Node2_2_0" tl="Node2" linkIndex="2" dir="l" state="O"/>
    <connection from="Node2-3-WB" to="Node1-2-WB" fromLane="0" toLane="0" via=":Node2_3_0" tl="Node2" linkIndex="3" dir="s" state="O"/>

    <connection from=":J3_0" to="E3" fromLane="0" toLane="0" dir="r" state="M"/>
    <connection from=":J3_1" to="-E2" fromLane="0" toLane="0" dir="l" state="M"/>
    <connection from=":Node1_0" to="-E5" fromLane="0" toLane="0" dir="l" state="M"/>
    <connection from=":Node1_1" to="Node1-2-EB" fromLane="0" toLane="0" dir="r" state="M"/>
    <connection from=":Node2_0" to="Node1-2-WB" fromLane="0" toLane="0" dir="l" state="M"/>
    <connection from=":Node2_1" to="Node2-3-EB" fromLane="0" toLane="0" dir="r" state="M"/>
    <connection from=":Node2_2" to="Node1-2-SB" fromLane="0" toLane="0" dir="l" state="M"/>
    <connection from=":Node2_3" to="Node1-2-WB" fromLane="0" toLane="0" dir="s" state="M"/>
    <connection from=":Node2_4" to="Node2-3-EB" fromLane="0" toLane="0" dir="s" state="M"/>
    <connection from=":Node2_5" to="Node1-2-SB" fromLane="0" toLane="0" via=":Node2_6_0" dir="r" state="m"/>
    <connection from=":Node2_6" to="Node1-2-SB" fromLane="0" toLane="0" dir="r" state="M"/>
    <connection from=":Node3_0" to="Node2-3-WB" fromLane="0" toLane="0" dir="l" state="M"/>
    <connection from=":Node3_1" to="E2" fromLane="0" toLane="0" dir="r" state="M"/>
    <connection from=":Node4_0" to="E5" fromLane="0" toLane="0" dir="r" state="M"/>
    <connection from=":Node4_1" to="-E4" fromLane="0" toLane="0" dir="l" state="M"/>
    <connection from=":Node5_0" to="E4" fromLane="0" toLane="0" dir="s" state="M"/>
    <connection from=":Node5_1" to="Node1-2-NB" fromLane="0" toLane="0" via=":Node5_6_0" dir="r" state="m"/>
    <connection from=":Node5_6" to="Node1-2-NB" fromLane="0" toLane="0" dir="r" state="M"/>
    <connection from=":Node5_2" to="-E3" fromLane="0" toLane="0" dir="l" state="M"/>
    <connection from=":Node5_3" to="E4" fromLane="0" toLane="0" dir="r" state="M"/>
    <connection from=":Node5_4" to="Node1-2-NB" fromLane="0" toLane="0" dir="l" state="M"/>
    <connection from=":Node5_5" to="-E3" fromLane="0" toLane="0" dir="s" state="M"/>

</net>
