<?xml version="1.0" encoding="UTF-8"?>

<!-- generated on 2025-09-14 15:04:55 by Eclipse SUMO netedit Version 1.24.0
<neteditConfiguration xmlns:xsi="http://www.w3.org/2001/XMLSchema-instance" xsi:noNamespaceSchemaLocation="http://sumo.dlr.de/xsd/neteditConfiguration.xsd">

    <input>
        <sumo-net-file value="E:\Programming\Projects\SIH 2025\Traffic Simulation\TLS\Traci\Traci2\Traci2.net.xml"/>
    </input>

    <output>
        <output-file value="E:\Programming\Projects\SIH 2025\Traffic Simulation\TLS\Traci\Traci2\Traci2.net.xml"/>
    </output>

    <processing>
        <offset.disable-normalization value="true"/>
    </processing>

    <junctions>
        <no-turnarounds value="true"/>
    </junctions>

    <netedit>
        <new-network value="false"/>
    </netedit>

</neteditConfiguration>
-->

<net version="1.20" junctionCornerDetail="5" lefthand="true" limitTurnSpeed="5.50" xmlns:xsi="http://www.w3.org/2001/XMLSchema-instance" xsi:noNamespaceSchemaLocation="http://sumo.dlr.de/xsd/net_file.xsd">

    <location netOffset="0.00,0.00" convBoundary="-72.39,-36.18,66.25,16.48" origBoundary="10000000000.00,10000000000.00,-10000000000.00,-10000000000.00" projParameter="!"/>

    <edge id=":J0_0" function="internal">
        <lane id=":J0_0_0" index="0" speed="6.15" length="7.92" shape="-69.08,17.64 -71.23,17.32 -72.76,16.39 -73.68,14.85 -73.99,12.71"/>
    </edge>
    <edge id=":J0_1" function="internal">
        <lane id=":J0_1_0" index="0" speed="3.91" length="2.58" shape="-70.68,12.71 -70.58,13.41 -70.28,13.91 -69.78,14.21 -69.08,14.31"/>
    </edge>
    <edge id=":J1_0" function="internal">
        <lane id=":J1_0_0" index="0" speed="13.89" length="13.82" shape="1.68,18.08 -12.14,18.03"/>
    </edge>
    <edge id=":J1_1" function="internal">
        <lane id=":J1_1_0" index="0" speed="8.01" length="4.71" shape="1.68,18.08 -1.89,17.49 -2.79,16.88"/>
    </edge>
    <edge id=":J1_6" function="internal">
        <lane id=":J1_6_0" index="0" speed="8.01" length="9.46" shape="-2.79,16.88 -4.45,15.74 -5.99,12.81 -6.51,8.71"/>
    </edge>
    <edge id=":J1_2" function="internal">
        <lane id=":J1_2_0" index="0" speed="6.47" length="9.03" shape="-3.86,8.70 -3.54,11.15 -2.51,12.91 -0.77,13.96 1.68,14.31"/>
    </edge>
    <edge id=":J1_3" function="internal">
        <lane id=":J1_3_0" index="0" speed="8.02" length="14.19" shape="-3.86,8.70 -4.43,12.80 -6.00,15.73 -8.57,17.47 -12.14,18.03"/>
    </edge>
    <edge id=":J1_4" function="internal">
        <lane id=":J1_4_0" index="0" speed="6.50" length="9.04" shape="-12.11,14.31 -9.66,13.96 -7.90,12.91 -6.86,11.16 -6.51,8.71"/>
    </edge>
    <edge id=":J1_5" function="internal">
        <lane id=":J1_5_0" index="0" speed="13.89" length="13.79" shape="-12.11,14.31 1.68,14.31"/>
    </edge>
    <edge id=":J2_0" function="internal">
        <lane id=":J2_0_0" index="0" speed="6.26" length="8.28" shape="67.85,12.72 67.54,15.07 66.62,16.74 65.09,17.75 62.95,18.08"/>
    </edge>
    <edge id=":J2_1" function="internal">
        <lane id=":J2_1_0" index="0" speed="3.90" length="2.58" shape="62.95,14.31 63.65,14.21 64.15,13.91 64.45,13.41 64.55,12.71"/>
    </edge>
    <edge id=":J3_0" function="internal">
        <lane id=":J3_0_0" index="0" speed="6.08" length="7.74" shape="63.05,-37.52 65.15,-37.21 66.65,-36.31 67.55,-34.81 67.85,-32.72"/>
    </edge>
    <edge id=":J3_1" function="internal">
        <lane id=":J3_1_0" index="0" speed="3.90" length="2.58" shape="64.64,-32.72 64.54,-33.41 64.25,-33.91 63.75,-34.21 63.05,-34.32"/>
    </edge>
    <edge id=":J4_0" function="internal">
        <lane id=":J4_0_0" index="0" speed="6.52" length="9.02" shape="-6.64,-28.85 -6.99,-31.30 -8.04,-33.06 -9.79,-34.11 -12.23,-34.46"/>
    </edge>
    <edge id=":J4_1" function="internal">
        <lane id=":J4_1_0" index="0" speed="8.02" length="14.31" shape="-6.64,-28.85 -6.09,-32.70 -4.42,-35.45 -1.62,-37.09 2.30,-37.64"/>
    </edge>
    <edge id=":J4_2" function="internal">
        <lane id=":J4_2_0" index="0" speed="6.54" length="9.06" shape="2.30,-34.44 -0.14,-34.09 -1.89,-33.03 -2.96,-31.27 -3.34,-28.81"/>
    </edge>
    <edge id=":J4_3" function="internal">
        <lane id=":J4_3_0" index="0" speed="13.89" length="14.52" shape="2.30,-34.44 -12.23,-34.46"/>
    </edge>
    <edge id=":J4_4" function="internal">
        <lane id=":J4_4_0" index="0" speed="13.89" length="14.52" shape="-12.22,-37.66 2.30,-37.64"/>
    </edge>
    <edge id=":J4_5" function="internal">
        <lane id=":J4_5_0" index="0" speed="8.01" length="4.15" shape="-12.22,-37.66 -8.29,-37.10 -8.14,-37.01"/>
    </edge>
    <edge id=":J4_6" function="internal">
        <lane id=":J4_6_0" index="0" speed="8.01" length="10.19" shape="-8.14,-37.01 -5.50,-35.44 -3.85,-32.68 -3.34,-28.81"/>
    </edge>
    <edge id=":J5_0" function="internal">
        <lane id=":J5_0_0" index="0" speed="3.90" length="2.59" shape="-69.14,-34.58 -69.84,-34.48 -70.35,-34.18 -70.65,-33.68 -70.75,-32.98"/>
    </edge>
    <edge id=":J5_1" function="internal">
        <lane id=":J5_1_0" index="0" speed="6.08" length="7.76" shape="-73.95,-32.97 -73.65,-35.08 -72.75,-36.58 -71.24,-37.48 -69.14,-37.78"/>
    </edge>

    <edge id="-E0" from="J1" to="J0" priority="-1">
        <lane id="-E0_0" index="0" speed="13.89" length="56.95" shape="-12.14,18.03 -69.08,17.64"/>
    </edge>
    <edge id="-E1" from="J2" to="J1" priority="-1">
        <lane id="-E1_0" index="0" speed="13.89" length="61.26" shape="62.95,18.08 1.68,18.08"/>
    </edge>
    <edge id="-E2" from="J3" to="J2" priority="-1">
        <lane id="-E2_0" index="0" speed="13.89" length="45.44" shape="67.85,-32.72 67.85,12.72"/>
    </edge>
    <edge id="-E3" from="J4" to="J3" priority="-1">
        <lane id="-E3_0" index="0" speed="13.89" length="60.75" shape="2.30,-37.64 63.05,-37.52"/>
    </edge>
    <edge id="-E4" from="J5" to="J4" priority="-1">
        <lane id="-E4_0" index="0" speed="13.89" length="56.92" shape="-69.14,-37.78 -12.22,-37.66"/>
    </edge>
    <edge id="-E5" from="J0" to="J5" priority="-1">
        <lane id="-E5_0" index="0" speed="13.89" length="45.68" shape="-73.99,12.71 -73.95,-32.97"/>
    </edge>
    <edge id="-E6" from="J4" to="J1" priority="-1">
        <lane id="-E6_0" index="0" speed="13.89" length="37.51" shape="-3.34,-28.81 -3.86,8.70"/>
    </edge>
    <edge id="E0" from="J0" to="J1" priority="-1" shape="-72.28,15.91 -4.89,15.91">
        <lane id="E0_0" index="0" speed="13.89" length="56.97" shape="-69.08,14.31 -12.11,14.31"/>
    </edge>
    <edge id="E1" from="J1" to="J2" priority="-1" shape="-4.89,15.91 66.14,15.91">
        <lane id="E1_0" index="0" speed="13.89" length="61.26" shape="1.68,14.31 62.95,14.31"/>
    </edge>
    <edge id="E2" from="J2" to="J3" priority="-1" shape="66.14,15.91 66.25,-35.91">
        <lane id="E2_0" index="0" speed="13.89" length="45.43" shape="64.55,12.71 64.64,-32.72"/>
    </edge>
    <edge id="E3" from="J3" to="J4" priority="-1" shape="66.25,-35.91 -5.06,-36.05">
        <lane id="E3_0" index="0" speed="13.89" length="60.75" shape="63.05,-34.32 2.30,-34.44"/>
    </edge>
    <edge id="E4" from="J4" to="J5" priority="-1" shape="-5.06,-36.05 -72.35,-36.18">
        <lane id="E4_0" index="0" speed="13.89" length="56.92" shape="-12.23,-34.46 -69.14,-34.58"/>
    </edge>
    <edge id="E5" from="J5" to="J0" priority="-1" shape="-72.35,-36.18 -72.28,15.91">
        <lane id="E5_0" index="0" speed="13.89" length="45.68" shape="-70.75,-32.98 -70.68,12.71"/>
    </edge>
    <edge id="E6" from="J1" to="J4" priority="-1" shape="-4.89,15.91 -5.06,-36.05">
        <lane id="E6_0" index="0" speed="13.89" length="37.56" shape="-6.51,8.71 -6.64,-28.85"/>
    </edge>

    <junction id="J0" type="priority" x="-72.39" y="16.02" incLanes="-E0_0 E5_0" intLanes=":J0_0_0 :J0_1_0" shape="-69.08,19.24 -69.08,12.71 -75.59,12.71 -74.87,16.32 -73.96,17.59 -72.70,18.50 -71.07,19.05">
        <request index="0" response="00" foes="00" cont="0"/>
        <request index="1" response="00" foes="00" cont="0"/>
    </junction>
    <junction id="J1" type="priority" x="-5.57" y="16.48" incLanes="-E1_0 -E6_0 E0_0" intLanes=":J1_0_0 :J1_6_0 :J1_2_0 :J1_3_0 :J1_4_0 :J1_5_0" shape="1.68,19.68 1.68,12.71 -0.53,12.26 -1.30,11.71 -1.85,10.92 -2.17,9.92 -2.26,8.69 -8.11,8.71 -8.55,10.93 -9.10,11.71 -9.88,12.27 -10.88,12.60 -12.10,12.71 -12.15,19.63">
        <request index="0" response="000000" foes="001000" cont="0"/>
        <request index="1" response="110000" foes="111000" cont="1"/>
        <request index="2" response="100000" foes="100000" cont="0"/>
        <request index="3" response="100011" foes="100011" cont="0"/>
        <request index="4" response="000000" foes="000010" cont="0"/>
        <request index="5" response="000000" foes="001110" cont="0"/>
    </junction>
    <junction id="J2" type="priority" x="66.25" y="16.48" incLanes="-E2_0 E1_0" intLanes=":J2_0_0 :J2_1_0" shape="69.45,12.72 62.95,12.71 62.95,19.68 66.56,18.91 67.82,17.94 68.73,16.59 69.27,14.85">
        <request index="0" response="00" foes="00" cont="0"/>
        <request index="1" response="00" foes="00" cont="0"/>
    </junction>
    <junction id="J3" type="priority" x="66.25" y="-35.91" incLanes="-E3_0 E2_0" intLanes=":J3_0_0 :J3_1_0" shape="63.04,-32.72 69.45,-32.72 68.74,-36.27 67.85,-37.51 66.61,-38.40 65.01,-38.93 63.06,-39.12">
        <request index="0" response="00" foes="00" cont="0"/>
        <request index="1" response="00" foes="00" cont="0"/>
    </junction>
    <junction id="J4" type="priority" x="-4.84" y="-36.05" incLanes="E6_0 E3_0 -E4_0" intLanes=":J4_0_0 :J4_1_0 :J4_2_0 :J4_3_0 :J4_4_0 :J4_6_0" shape="-8.24,-28.88 -1.74,-28.79 -1.27,-31.04 -0.70,-31.83 0.08,-32.39 1.08,-32.73 2.29,-32.84 2.31,-39.24 -12.22,-39.26 -12.23,-32.86 -10.02,-32.42 -9.24,-31.86 -8.69,-31.09 -8.35,-30.09">
        <request index="0" response="001000" foes="001000" cont="0"/>
        <request index="1" response="111000" foes="111000" cont="0"/>
        <request index="2" response="000000" foes="100000" cont="0"/>
        <request index="3" response="000000" foes="100011" cont="0"/>
        <request index="4" response="000000" foes="000010" cont="0"/>
        <request index="5" response="001100" foes="001110" cont="1"/>
    </junction>
    <junction id="J5" type="priority" x="-72.35" y="-36.18" incLanes="E4_0 -E5_0" intLanes=":J5_0_0 :J5_1_0" shape="-75.55,-32.97 -69.15,-32.98 -69.13,-39.38 -72.70,-38.67 -73.95,-37.78 -74.84,-36.54 -75.37,-34.93">
        <request index="0" response="00" foes="00" cont="0"/>
        <request index="1" response="00" foes="00" cont="0"/>
    </junction>

    <junction id=":J1_6_0" type="internal" x="-2.79" y="16.88" incLanes=":J1_1_0 E0_0" intLanes=":J1_3_0 :J1_4_0 :J1_5_0"/>
    <junction id=":J4_6_0" type="internal" x="-8.14" y="-37.01" incLanes=":J4_5_0 E3_0" intLanes=":J4_1_0 :J4_2_0 :J4_3_0"/>

    <connection from="-E0" to="-E5" fromLane="0" toLane="0" via=":J0_0_0" dir="l" state="M"/>
    <connection from="-E1" to="-E0" fromLane="0" toLane="0" via=":J1_0_0" dir="s" state="M"/>
    <connection from="-E1" to="E6" fromLane="0" toLane="0" via=":J1_1_0" dir="l" state="m"/>
    <connection from="-E2" to="-E1" fromLane="0" toLane="0" via=":J2_0_0" dir="l" state="M"/>
    <connection from="-E3" to="-E2" fromLane="0" toLane="0" via=":J3_0_0" dir="l" state="M"/>
    <connection from="-E4" to="-E3" fromLane="0" toLane="0" via=":J4_4_0" dir="s" state="M"/>
    <connection from="-E4" to="-E6" fromLane="0" toLane="0" via=":J4_5_0" dir="l" state="m"/>
    <connection from="-E5" to="-E4" fromLane="0" toLane="0" via=":J5_1_0" dir="l" state="M"/>
    <connection from="-E6" to="E1" fromLane="0" toLane="0" via=":J1_2_0" dir="r" state="m"/>
    <connection from="-E6" to="-E0" fromLane="0" toLane="0" via=":J1_3_0" dir="l" state="m"/>
    <connection from="E0" to="E6" fromLane="0" toLane="0" via=":J1_4_0" dir="r" state="M"/>
    <connection from="E0" to="E1" fromLane="0" toLane="0" via=":J1_5_0" dir="s" state="M"/>
    <connection from="E1" to="E2" fromLane="0" toLane="0" via=":J2_1_0" dir="r" state="M"/>
    <connection from="E2" to="E3" fromLane="0" toLane="0" via=":J3_1_0" dir="r" state="M"/>
    <connection from="E3" to="-E6" fromLane="0" toLane="0" via=":J4_2_0" dir="r" state="M"/>
    <connection from="E3" to="E4" fromLane="0" toLane="0" via=":J4_3_0" dir="s" state="M"/>
    <connection from="E4" to="E5" fromLane="0" toLane="0" via=":J5_0_0" dir="r" state="M"/>
    <connection from="E5" to="E0" fromLane="0" toLane="0" via=":J0_1_0" dir="r" state="M"/>
    <connection from="E6" to="E4" fromLane="0" toLane="0" via=":J4_0_0" dir="r" state="m"/>
    <connection from="E6" to="-E3" fromLane="0" toLane="0" via=":J4_1_0" dir="l" state="m"/>

    <connection from=":J0_0" to="-E5" fromLane="0" toLane="0" dir="l" state="M"/>
    <connection from=":J0_1" to="E0" fromLane="0" toLane="0" dir="r" state="M"/>
    <connection from=":J1_0" to="-E0" fromLane="0" toLane="0" dir="s" state="M"/>
    <connection from=":J1_1" to="E6" fromLane="0" toLane="0" via=":J1_6_0" dir="l" state="m"/>
    <connection from=":J1_6" to="E6" fromLane="0" toLane="0" dir="l" state="M"/>
    <connection from=":J1_2" to="E1" fromLane="0" toLane="0" dir="r" state="M"/>
    <connection from=":J1_3" to="-E0" fromLane="0" toLane="0" dir="l" state="M"/>
    <connection from=":J1_4" to="E6" fromLane="0" toLane="0" dir="r" state="M"/>
    <connection from=":J1_5" to="E1" fromLane="0" toLane="0" dir="s" state="M"/>
    <connection from=":J2_0" to="-E1" fromLane="0" toLane="0" dir="l" state="M"/>
    <connection from=":J2_1" to="E2" fromLane="0" toLane="0" dir="r" state="M"/>
    <connection from=":J3_0" to="-E2" fromLane="0" toLane="0" dir="l" state="M"/>
    <connection from=":J3_1" to="E3" fromLane="0" toLane="0" dir="r" state="M"/>
    <connection from=":J4_0" to="E4" fromLane="0" toLane="0" dir="r" state="M"/>
    <connection from=":J4_1" to="-E3" fromLane="0" toLane="0" dir="l" state="M"/>
    <connection from=":J4_2" to="-E6" fromLane="0" toLane="0" dir="r" state="M"/>
    <connection from=":J4_3" to="E4" fromLane="0" toLane="0" dir="s" state="M"/>
    <connection from=":J4_4" to="-E3" fromLane="0" toLane="0" dir="s" state="M"/>
    <connection from=":J4_5" to="-E6" fromLane="0" toLane="0" via=":J4_6_0" dir="l" state="m"/>
    <connection from=":J4_6" to="-E6" fromLane="0" toLane="0" dir="l" state="M"/>
    <connection from=":J5_0" to="E5" fromLane="0" toLane="0" dir="r" state="M"/>
    <connection from=":J5_1" to="-E4" fromLane="0" toLane="0" dir="l" state="M"/>

</net>
