<?xml version="1.0" encoding="UTF-8"?>

<!-- generated on 2025-09-14 15:35:15 by Eclipse SUMO netedit Version 1.24.0
-->

<routes xmlns:xsi="http://www.w3.org/2001/XMLSchema-instance" xsi:noNamespaceSchemaLocation="http://sumo.dlr.de/xsd/routes_file.xsd">
    <!-- VTypes -->
    <vType id="DEFAULT_VEHTYPE"/>
    <vType id="emergency" vClass="emergency" guiShape="emergency"/>
    <!-- Vehicles, persons and containers (sorted by depart) -->
    <trip id="emergency" type="emergency" depart="0.00" from="Node1-2-EB" to="-E3" via="Node1-2-SB"/>
</routes>
